New Loadshape.curva_34E0508_TR1 npts=24 interval=1 pmult=( 0.511 0.511 0.511 0.511 0.511 0.511 0.5696 0.5696 0.5696 0.5696 0.5696 0.5696 0.6317 0.6317 0.6317 0.6317 0.6317 0.6317 0.8875 0.8875 0.8875 0.8875 0.8875 0.8875) qmult=( 0.511 0.511 0.511 0.511 0.511 0.511 0.5696 0.5696 0.5696 0.5696 0.5696 0.5696 0.6317 0.6317 0.6317 0.6317 0.6317 0.6317 0.8875 0.8875 0.8875 0.8875 0.8875 0.8875)
New Loadshape.curva_91E5092_TR1 npts=24 interval=1 pmult=( 0.8143 0.8143 0.8143 0.8143 0.8143 0.8143 0.7761 0.7761 0.7761 0.7761 0.7761 0.7761 0.8633 0.8633 0.8633 0.8633 0.8633 0.8633 1.323 1.323 1.323 1.323 1.323 1.323) qmult=( 0.8143 0.8143 0.8143 0.8143 0.8143 0.8143 0.7761 0.7761 0.7761 0.7761 0.7761 0.7761 0.8633 0.8633 0.8633 0.8633 0.8633 0.8633 1.323 1.323 1.323 1.323 1.323 1.323)
New Loadshape.curva_91E5688_TR1 npts=24 interval=1 pmult=( 0.971 0.971 0.971 0.971 0.971 0.971 0.9683 0.9683 0.9683 0.9683 0.9683 0.9683 1.0488 1.0488 1.0488 1.0488 1.0488 1.0488 1.4009 1.4009 1.4009 1.4009 1.4009 1.4009) qmult=( 0.971 0.971 0.971 0.971 0.971 0.971 0.9683 0.9683 0.9683 0.9683 0.9683 0.9683 1.0488 1.0488 1.0488 1.0488 1.0488 1.0488 1.4009 1.4009 1.4009 1.4009 1.4009 1.4009)
New Loadshape.curva_80E1234_TR1 npts=24 interval=1 pmult=( 0.0233 0.0233 0.0233 0.0233 0.0233 0.0233 0.0257 0.0257 0.0257 0.0257 0.0257 0.0257 0.0297 0.0297 0.0297 0.0297 0.0297 0.0297 0.0395 0.0395 0.0395 0.0395 0.0395 0.0395) qmult=( 0.0233 0.0233 0.0233 0.0233 0.0233 0.0233 0.0257 0.0257 0.0257 0.0257 0.0257 0.0257 0.0297 0.0297 0.0297 0.0297 0.0297 0.0297 0.0395 0.0395 0.0395 0.0395 0.0395 0.0395)
New Loadshape.curva_34E0585_M_1 npts=24 interval=1 pmult=( 0.9058 0.9058 0.9058 0.9058 0.9058 0.9058 0.9058 0.9058 0.9058 0.9058 0.9058 0.9058 0.9058 0.9058 0.9058 0.9058 0.9058 0.9058 0.9058 0.9058 0.9058 0.9058 0.9058 0.9058) qmult=( 0.9058 0.9058 0.9058 0.9058 0.9058 0.9058 0.9058 0.9058 0.9058 0.9058 0.9058 0.9058 0.9058 0.9058 0.9058 0.9058 0.9058 0.9058 0.9058 0.9058 0.9058 0.9058 0.9058 0.9058)
New Loadshape.curva_27E1076_TR1 npts=24 interval=1 pmult=( 0.1357 0.1357 0.1357 0.1357 0.1357 0.1357 0.1061 0.1061 0.1061 0.1061 0.1061 0.1061 0.1185 0.1185 0.1185 0.1185 0.1185 0.1185 0.2086 0.2086 0.2086 0.2086 0.2086 0.2086) qmult=( 0.1357 0.1357 0.1357 0.1357 0.1357 0.1357 0.1061 0.1061 0.1061 0.1061 0.1061 0.1061 0.1185 0.1185 0.1185 0.1185 0.1185 0.1185 0.2086 0.2086 0.2086 0.2086 0.2086 0.2086)
New Loadshape.curva_42E1200_TR1 npts=24 interval=1 pmult=( 0.6208 0.6208 0.6208 0.6208 0.6208 0.6208 0.6933 0.6933 0.6933 0.6933 0.6933 0.6933 0.7674 0.7674 0.7674 0.7674 0.7674 0.7674 1.0779 1.0779 1.0779 1.0779 1.0779 1.0779) qmult=( 0.6208 0.6208 0.6208 0.6208 0.6208 0.6208 0.6933 0.6933 0.6933 0.6933 0.6933 0.6933 0.7674 0.7674 0.7674 0.7674 0.7674 0.7674 1.0779 1.0779 1.0779 1.0779 1.0779 1.0779)
New Loadshape.curva_88L2072_TR1 npts=24 interval=1 pmult=( 0.2938 0.2938 0.2938 0.2938 0.2938 0.2938 0.3263 0.3263 0.3263 0.3263 0.3263 0.3263 0.3668 0.3668 0.3668 0.3668 0.3668 0.3668 0.4858 0.4858 0.4858 0.4858 0.4858 0.4858) qmult=( 0.2938 0.2938 0.2938 0.2938 0.2938 0.2938 0.3263 0.3263 0.3263 0.3263 0.3263 0.3263 0.3668 0.3668 0.3668 0.3668 0.3668 0.3668 0.4858 0.4858 0.4858 0.4858 0.4858 0.4858)
New Loadshape.curva_61E1143_TR1 npts=24 interval=1 pmult=( 0.3863 0.3863 0.3863 0.3863 0.3863 0.3863 0.4071 0.4071 0.4071 0.4071 0.4071 0.4071 0.4455 0.4455 0.4455 0.4455 0.4455 0.4455 0.6322 0.6322 0.6322 0.6322 0.6322 0.6322) qmult=( 0.3863 0.3863 0.3863 0.3863 0.3863 0.3863 0.4071 0.4071 0.4071 0.4071 0.4071 0.4071 0.4455 0.4455 0.4455 0.4455 0.4455 0.4455 0.6322 0.6322 0.6322 0.6322 0.6322 0.6322)
New Loadshape.curva_91E4735_M_1 npts=24 interval=1 pmult=( 0.7971 0.7971 0.7971 0.7971 0.7971 0.7971 0.7971 0.7971 0.7971 0.7971 0.7971 0.7971 0.7971 0.7971 0.7971 0.7971 0.7971 0.7971 0.7971 0.7971 0.7971 0.7971 0.7971 0.7971) qmult=( 0.7971 0.7971 0.7971 0.7971 0.7971 0.7971 0.7971 0.7971 0.7971 0.7971 0.7971 0.7971 0.7971 0.7971 0.7971 0.7971 0.7971 0.7971 0.7971 0.7971 0.7971 0.7971 0.7971 0.7971)
New Loadshape.curva_91E4939_M_1 npts=24 interval=1 pmult=( 0.6667 0.6667 0.6667 0.6667 0.6667 0.6667 0.6667 0.6667 0.6667 0.6667 0.6667 0.6667 0.6667 0.6667 0.6667 0.6667 0.6667 0.6667 0.6667 0.6667 0.6667 0.6667 0.6667 0.6667) qmult=( 0.6667 0.6667 0.6667 0.6667 0.6667 0.6667 0.6667 0.6667 0.6667 0.6667 0.6667 0.6667 0.6667 0.6667 0.6667 0.6667 0.6667 0.6667 0.6667 0.6667 0.6667 0.6667 0.6667 0.6667)
New Loadshape.curva_91E4939_TR1 npts=24 interval=1 pmult=( 0 0 0 0 0 0 0 0 0 0 0 0 0 0 0 0 0 0 0 0 0 0 0 0) qmult=( 0 0 0 0 0 0 0 0 0 0 0 0 0 0 0 0 0 0 0 0 0 0 0 0)
New Loadshape.curva_94S2338_TR1 npts=24 interval=1 pmult=( 0.0643 0.0643 0.0643 0.0643 0.0643 0.0643 0.0655 0.0655 0.0655 0.0655 0.0655 0.0655 0.0735 0.0735 0.0735 0.0735 0.0735 0.0735 0.107 0.107 0.107 0.107 0.107 0.107) qmult=( 0.0643 0.0643 0.0643 0.0643 0.0643 0.0643 0.0655 0.0655 0.0655 0.0655 0.0655 0.0655 0.0735 0.0735 0.0735 0.0735 0.0735 0.0735 0.107 0.107 0.107 0.107 0.107 0.107)
New Loadshape.curva_90E1011_TR1 npts=24 interval=1 pmult=( 0.5751 0.5751 0.5751 0.5751 0.5751 0.5751 0.5153 0.5153 0.5153 0.5153 0.5153 0.5153 0.5636 0.5636 0.5636 0.5636 0.5636 0.5636 0.8458 0.8458 0.8458 0.8458 0.8458 0.8458) qmult=( 0.5751 0.5751 0.5751 0.5751 0.5751 0.5751 0.5153 0.5153 0.5153 0.5153 0.5153 0.5153 0.5636 0.5636 0.5636 0.5636 0.5636 0.5636 0.8458 0.8458 0.8458 0.8458 0.8458 0.8458)
New Loadshape.curva_90E0848_TR1 npts=24 interval=1 pmult=( 0.0503 0.0503 0.0503 0.0503 0.0503 0.0503 0.0437 0.0437 0.0437 0.0437 0.0437 0.0437 0.0457 0.0457 0.0457 0.0457 0.0457 0.0457 0.058 0.058 0.058 0.058 0.058 0.058) qmult=( 0.0503 0.0503 0.0503 0.0503 0.0503 0.0503 0.0437 0.0437 0.0437 0.0437 0.0437 0.0437 0.0457 0.0457 0.0457 0.0457 0.0457 0.0457 0.058 0.058 0.058 0.058 0.058 0.058)
New Loadshape.curva_71L1039_M_1 npts=24 interval=1 pmult=( 0.5435 0.5435 0.5435 0.5435 0.5435 0.5435 0.5435 0.5435 0.5435 0.5435 0.5435 0.5435 0.5435 0.5435 0.5435 0.5435 0.5435 0.5435 0.5435 0.5435 0.5435 0.5435 0.5435 0.5435) qmult=( 0.5435 0.5435 0.5435 0.5435 0.5435 0.5435 0.5435 0.5435 0.5435 0.5435 0.5435 0.5435 0.5435 0.5435 0.5435 0.5435 0.5435 0.5435 0.5435 0.5435 0.5435 0.5435 0.5435 0.5435)
New Loadshape.curva_41L1000_M_1 npts=24 interval=1 pmult=( 0.7065 0.7065 0.7065 0.7065 0.7065 0.7065 0.7065 0.7065 0.7065 0.7065 0.7065 0.7065 0.7065 0.7065 0.7065 0.7065 0.7065 0.7065 0.7065 0.7065 0.7065 0.7065 0.7065 0.7065) qmult=( 0.7065 0.7065 0.7065 0.7065 0.7065 0.7065 0.7065 0.7065 0.7065 0.7065 0.7065 0.7065 0.7065 0.7065 0.7065 0.7065 0.7065 0.7065 0.7065 0.7065 0.7065 0.7065 0.7065 0.7065)
New Loadshape.curva_90E1382_TR1 npts=24 interval=1 pmult=( 1.2919 1.2919 1.2919 1.2919 1.2919 1.2919 1.0631 1.0631 1.0631 1.0631 1.0631 1.0631 1.1144 1.1144 1.1144 1.1144 1.1144 1.1144 1.4866 1.4866 1.4866 1.4866 1.4866 1.4866) qmult=( 1.2919 1.2919 1.2919 1.2919 1.2919 1.2919 1.0631 1.0631 1.0631 1.0631 1.0631 1.0631 1.1144 1.1144 1.1144 1.1144 1.1144 1.1144 1.4866 1.4866 1.4866 1.4866 1.4866 1.4866)
New Loadshape.curva_21E1800_TR1 npts=24 interval=1 pmult=( 0.2202 0.2202 0.2202 0.2202 0.2202 0.2202 0.2303 0.2303 0.2303 0.2303 0.2303 0.2303 0.2572 0.2572 0.2572 0.2572 0.2572 0.2572 0.3801 0.3801 0.3801 0.3801 0.3801 0.3801) qmult=( 0.2202 0.2202 0.2202 0.2202 0.2202 0.2202 0.2303 0.2303 0.2303 0.2303 0.2303 0.2303 0.2572 0.2572 0.2572 0.2572 0.2572 0.2572 0.3801 0.3801 0.3801 0.3801 0.3801 0.3801)
New Loadshape.curva_90E1021_M_1 npts=24 interval=1 pmult=( 0.6733 0.6733 0.6733 0.6733 0.6733 0.6733 0.6733 0.6733 0.6733 0.6733 0.6733 0.6733 0.6733 0.6733 0.6733 0.6733 0.6733 0.6733 0.6733 0.6733 0.6733 0.6733 0.6733 0.6733) qmult=( 0.6733 0.6733 0.6733 0.6733 0.6733 0.6733 0.6733 0.6733 0.6733 0.6733 0.6733 0.6733 0.6733 0.6733 0.6733 0.6733 0.6733 0.6733 0.6733 0.6733 0.6733 0.6733 0.6733 0.6733)
New Loadshape.curva_97E0238_TR1 npts=24 interval=1 pmult=( 0.4096 0.4096 0.4096 0.4096 0.4096 0.4096 0.4838 0.4838 0.4838 0.4838 0.4838 0.4838 0.5436 0.5436 0.5436 0.5436 0.5436 0.5436 0.7456 0.7456 0.7456 0.7456 0.7456 0.7456) qmult=( 0.4096 0.4096 0.4096 0.4096 0.4096 0.4096 0.4838 0.4838 0.4838 0.4838 0.4838 0.4838 0.5436 0.5436 0.5436 0.5436 0.5436 0.5436 0.7456 0.7456 0.7456 0.7456 0.7456 0.7456)
New Loadshape.curva_30E1035_TR1 npts=24 interval=1 pmult=( 0.2116 0.2116 0.2116 0.2116 0.2116 0.2116 0.2549 0.2549 0.2549 0.2549 0.2549 0.2549 0.2829 0.2829 0.2829 0.2829 0.2829 0.2829 0.3774 0.3774 0.3774 0.3774 0.3774 0.3774) qmult=( 0.2116 0.2116 0.2116 0.2116 0.2116 0.2116 0.2549 0.2549 0.2549 0.2549 0.2549 0.2549 0.2829 0.2829 0.2829 0.2829 0.2829 0.2829 0.3774 0.3774 0.3774 0.3774 0.3774 0.3774)
New Loadshape.curva_30E1070_M_1 npts=24 interval=1 pmult=( 0 0 0 0 0 0 0 0 0 0 0 0 0 0 0 0 0 0 0 0 0 0 0 0) qmult=( 0 0 0 0 0 0 0 0 0 0 0 0 0 0 0 0 0 0 0 0 0 0 0 0)
New Loadshape.curva_90E2031_TR1 npts=24 interval=1 pmult=( 0.1502 0.1502 0.1502 0.1502 0.1502 0.1502 0.105 0.105 0.105 0.105 0.105 0.105 0.1088 0.1088 0.1088 0.1088 0.1088 0.1088 0.1626 0.1626 0.1626 0.1626 0.1626 0.1626) qmult=( 0.1502 0.1502 0.1502 0.1502 0.1502 0.1502 0.105 0.105 0.105 0.105 0.105 0.105 0.1088 0.1088 0.1088 0.1088 0.1088 0.1088 0.1626 0.1626 0.1626 0.1626 0.1626 0.1626)
New Loadshape.curva_28E0339_TR1 npts=24 interval=1 pmult=( 0.1266 0.1266 0.1266 0.1266 0.1266 0.1266 0.1581 0.1581 0.1581 0.1581 0.1581 0.1581 0.1782 0.1782 0.1782 0.1782 0.1782 0.1782 0.2289 0.2289 0.2289 0.2289 0.2289 0.2289) qmult=( 0.1266 0.1266 0.1266 0.1266 0.1266 0.1266 0.1581 0.1581 0.1581 0.1581 0.1581 0.1581 0.1782 0.1782 0.1782 0.1782 0.1782 0.1782 0.2289 0.2289 0.2289 0.2289 0.2289 0.2289)
New Loadshape.curva_28E0065_TR1 npts=24 interval=1 pmult=( 0.3921 0.3921 0.3921 0.3921 0.3921 0.3921 0.3604 0.3604 0.3604 0.3604 0.3604 0.3604 0.3979 0.3979 0.3979 0.3979 0.3979 0.3979 0.5971 0.5971 0.5971 0.5971 0.5971 0.5971) qmult=( 0.3921 0.3921 0.3921 0.3921 0.3921 0.3921 0.3604 0.3604 0.3604 0.3604 0.3604 0.3604 0.3979 0.3979 0.3979 0.3979 0.3979 0.3979 0.5971 0.5971 0.5971 0.5971 0.5971 0.5971)
New Loadshape.curva_18E0096_TR1 npts=24 interval=1 pmult=( 0.2431 0.2431 0.2431 0.2431 0.2431 0.2431 0.2282 0.2282 0.2282 0.2282 0.2282 0.2282 0.2655 0.2655 0.2655 0.2655 0.2655 0.2655 0.3647 0.3647 0.3647 0.3647 0.3647 0.3647) qmult=( 0.2431 0.2431 0.2431 0.2431 0.2431 0.2431 0.2282 0.2282 0.2282 0.2282 0.2282 0.2282 0.2655 0.2655 0.2655 0.2655 0.2655 0.2655 0.3647 0.3647 0.3647 0.3647 0.3647 0.3647)
New Loadshape.curva_30E1713_TR1 npts=24 interval=1 pmult=( 0.37 0.37 0.37 0.37 0.37 0.37 0.4265 0.4265 0.4265 0.4265 0.4265 0.4265 0.4707 0.4707 0.4707 0.4707 0.4707 0.4707 0.6131 0.6131 0.6131 0.6131 0.6131 0.6131) qmult=( 0.37 0.37 0.37 0.37 0.37 0.37 0.4265 0.4265 0.4265 0.4265 0.4265 0.4265 0.4707 0.4707 0.4707 0.4707 0.4707 0.4707 0.6131 0.6131 0.6131 0.6131 0.6131 0.6131)
New Loadshape.curva_02E4914_TR1 npts=24 interval=1 pmult=( 0.1346 0.1346 0.1346 0.1346 0.1346 0.1346 0.1263 0.1263 0.1263 0.1263 0.1263 0.1263 0.1409 0.1409 0.1409 0.1409 0.1409 0.1409 0.2014 0.2014 0.2014 0.2014 0.2014 0.2014) qmult=( 0.1346 0.1346 0.1346 0.1346 0.1346 0.1346 0.1263 0.1263 0.1263 0.1263 0.1263 0.1263 0.1409 0.1409 0.1409 0.1409 0.1409 0.1409 0.2014 0.2014 0.2014 0.2014 0.2014 0.2014)
New Loadshape.curva_02E4792_TR1 npts=24 interval=1 pmult=( 0.29 0.29 0.29 0.29 0.29 0.29 0.2904 0.2904 0.2904 0.2904 0.2904 0.2904 0.3177 0.3177 0.3177 0.3177 0.3177 0.3177 0.449 0.449 0.449 0.449 0.449 0.449) qmult=( 0.29 0.29 0.29 0.29 0.29 0.29 0.2904 0.2904 0.2904 0.2904 0.2904 0.2904 0.3177 0.3177 0.3177 0.3177 0.3177 0.3177 0.449 0.449 0.449 0.449 0.449 0.449)
New Loadshape.curva_71E1021_TR1 npts=24 interval=1 pmult=( 1.4503 1.4503 1.4503 1.4503 1.4503 1.4503 1.8445 1.8445 1.8445 1.8445 1.8445 1.8445 2.0379 2.0379 2.0379 2.0379 2.0379 2.0379 2.8549 2.8549 2.8549 2.8549 2.8549 2.8549) qmult=( 1.4503 1.4503 1.4503 1.4503 1.4503 1.4503 1.8445 1.8445 1.8445 1.8445 1.8445 1.8445 2.0379 2.0379 2.0379 2.0379 2.0379 2.0379 2.8549 2.8549 2.8549 2.8549 2.8549 2.8549)
New Loadshape.curva_90E2616_TR1 npts=24 interval=1 pmult=( 0.5579 0.5579 0.5579 0.5579 0.5579 0.5579 0.0921 0.0921 0.0921 0.0921 0.0921 0.0921 0.0975 0.0975 0.0975 0.0975 0.0975 0.0975 0.5836 0.5836 0.5836 0.5836 0.5836 0.5836) qmult=( 0.5579 0.5579 0.5579 0.5579 0.5579 0.5579 0.0921 0.0921 0.0921 0.0921 0.0921 0.0921 0.0975 0.0975 0.0975 0.0975 0.0975 0.0975 0.5836 0.5836 0.5836 0.5836 0.5836 0.5836)
New Loadshape.curva_90E3019_TR1 npts=24 interval=1 pmult=( 0.2448 0.2448 0.2448 0.2448 0.2448 0.2448 0.1668 0.1668 0.1668 0.1668 0.1668 0.1668 0.1771 0.1771 0.1771 0.1771 0.1771 0.1771 0.2922 0.2922 0.2922 0.2922 0.2922 0.2922) qmult=( 0.2448 0.2448 0.2448 0.2448 0.2448 0.2448 0.1668 0.1668 0.1668 0.1668 0.1668 0.1668 0.1771 0.1771 0.1771 0.1771 0.1771 0.1771 0.2922 0.2922 0.2922 0.2922 0.2922 0.2922)
New Loadshape.curva_90E3475_TR1 npts=24 interval=1 pmult=( 0.1585 0.1585 0.1585 0.1585 0.1585 0.1585 0.0504 0.0504 0.0504 0.0504 0.0504 0.0504 0.0565 0.0565 0.0565 0.0565 0.0565 0.0565 0.1858 0.1858 0.1858 0.1858 0.1858 0.1858) qmult=( 0.1585 0.1585 0.1585 0.1585 0.1585 0.1585 0.0504 0.0504 0.0504 0.0504 0.0504 0.0504 0.0565 0.0565 0.0565 0.0565 0.0565 0.0565 0.1858 0.1858 0.1858 0.1858 0.1858 0.1858)
New Loadshape.curva_90E3942_M_1 npts=24 interval=1 pmult=( 0 0 0 0 0 0 0 0 0 0 0 0 0 0 0 0 0 0 0 0 0 0 0 0) qmult=( 0 0 0 0 0 0 0 0 0 0 0 0 0 0 0 0 0 0 0 0 0 0 0 0)
New Loadshape.curva_90E4120_M_1 npts=24 interval=1 pmult=( 0 0 0 0 0 0 0 0 0 0 0 0 0 0 0 0 0 0 0 0 0 0 0 0) qmult=( 0 0 0 0 0 0 0 0 0 0 0 0 0 0 0 0 0 0 0 0 0 0 0 0)
New Loadshape.curva_02E3554_TR1 npts=24 interval=1 pmult=( 0.3216 0.3216 0.3216 0.3216 0.3216 0.3216 0.3386 0.3386 0.3386 0.3386 0.3386 0.3386 0.3767 0.3767 0.3767 0.3767 0.3767 0.3767 0.5443 0.5443 0.5443 0.5443 0.5443 0.5443) qmult=( 0.3216 0.3216 0.3216 0.3216 0.3216 0.3216 0.3386 0.3386 0.3386 0.3386 0.3386 0.3386 0.3767 0.3767 0.3767 0.3767 0.3767 0.3767 0.5443 0.5443 0.5443 0.5443 0.5443 0.5443)
New Loadshape.curva_02E3976_TR1 npts=24 interval=1 pmult=( 0.788 0.788 0.788 0.788 0.788 0.788 0.9309 0.9309 0.9309 0.9309 0.9309 0.9309 1.0266 1.0266 1.0266 1.0266 1.0266 1.0266 1.429 1.429 1.429 1.429 1.429 1.429) qmult=( 0.788 0.788 0.788 0.788 0.788 0.788 0.9309 0.9309 0.9309 0.9309 0.9309 0.9309 1.0266 1.0266 1.0266 1.0266 1.0266 1.0266 1.429 1.429 1.429 1.429 1.429 1.429)
New Loadshape.curva_02E4181_TR1 npts=24 interval=1 pmult=( 0.2701 0.2701 0.2701 0.2701 0.2701 0.2701 0.316 0.316 0.316 0.316 0.316 0.316 0.3473 0.3473 0.3473 0.3473 0.3473 0.3473 0.5117 0.5117 0.5117 0.5117 0.5117 0.5117) qmult=( 0.2701 0.2701 0.2701 0.2701 0.2701 0.2701 0.316 0.316 0.316 0.316 0.316 0.316 0.3473 0.3473 0.3473 0.3473 0.3473 0.3473 0.5117 0.5117 0.5117 0.5117 0.5117 0.5117)
New Loadshape.curva_02E4345_TR1 npts=24 interval=1 pmult=( 0.4108 0.4108 0.4108 0.4108 0.4108 0.4108 0.4296 0.4296 0.4296 0.4296 0.4296 0.4296 0.4723 0.4723 0.4723 0.4723 0.4723 0.4723 0.6474 0.6474 0.6474 0.6474 0.6474 0.6474) qmult=( 0.4108 0.4108 0.4108 0.4108 0.4108 0.4108 0.4296 0.4296 0.4296 0.4296 0.4296 0.4296 0.4723 0.4723 0.4723 0.4723 0.4723 0.4723 0.6474 0.6474 0.6474 0.6474 0.6474 0.6474)
New Loadshape.curva_12L1200_TR1 npts=24 interval=1 pmult=( 0.3377 0.3377 0.3377 0.3377 0.3377 0.3377 0.1797 0.1797 0.1797 0.1797 0.1797 0.1797 0.1873 0.1873 0.1873 0.1873 0.1873 0.1873 0.3717 0.3717 0.3717 0.3717 0.3717 0.3717) qmult=( 0.3377 0.3377 0.3377 0.3377 0.3377 0.3377 0.1797 0.1797 0.1797 0.1797 0.1797 0.1797 0.1873 0.1873 0.1873 0.1873 0.1873 0.1873 0.3717 0.3717 0.3717 0.3717 0.3717 0.3717)
New Loadshape.curva_90E4431_M_1 npts=24 interval=1 pmult=( 0.0235 0.0235 0.0235 0.0235 0.0235 0.0235 0.026 0.026 0.026 0.026 0.026 0.026 0.03 0.03 0.03 0.03 0.03 0.03 0.0389 0.0389 0.0389 0.0389 0.0389 0.0389) qmult=( 0.0235 0.0235 0.0235 0.0235 0.0235 0.0235 0.026 0.026 0.026 0.026 0.026 0.026 0.03 0.03 0.03 0.03 0.03 0.03 0.0389 0.0389 0.0389 0.0389 0.0389 0.0389)
New Loadshape.curva_02E4262_M_1 npts=24 interval=1 pmult=( 2.029 2.029 2.029 2.029 2.029 2.029 2.029 2.029 2.029 2.029 2.029 2.029 2.029 2.029 2.029 2.029 2.029 2.029 2.029 2.029 2.029 2.029 2.029 2.029) qmult=( 2.029 2.029 2.029 2.029 2.029 2.029 2.029 2.029 2.029 2.029 2.029 2.029 2.029 2.029 2.029 2.029 2.029 2.029 2.029 2.029 2.029 2.029 2.029 2.029)
New Loadshape.curva_02E3585_M_1 npts=24 interval=1 pmult=( 0.4348 0.4348 0.4348 0.4348 0.4348 0.4348 0.4348 0.4348 0.4348 0.4348 0.4348 0.4348 0.4348 0.4348 0.4348 0.4348 0.4348 0.4348 0.4348 0.4348 0.4348 0.4348 0.4348 0.4348) qmult=( 0.4348 0.4348 0.4348 0.4348 0.4348 0.4348 0.4348 0.4348 0.4348 0.4348 0.4348 0.4348 0.4348 0.4348 0.4348 0.4348 0.4348 0.4348 0.4348 0.4348 0.4348 0.4348 0.4348 0.4348)
New Loadshape.curva_02E3281_TR1 npts=24 interval=1 pmult=( 0.028 0.028 0.028 0.028 0.028 0.028 0.0326 0.0326 0.0326 0.0326 0.0326 0.0326 0.0354 0.0354 0.0354 0.0354 0.0354 0.0354 0.0439 0.0439 0.0439 0.0439 0.0439 0.0439) qmult=( 0.028 0.028 0.028 0.028 0.028 0.028 0.0326 0.0326 0.0326 0.0326 0.0326 0.0326 0.0354 0.0354 0.0354 0.0354 0.0354 0.0354 0.0439 0.0439 0.0439 0.0439 0.0439 0.0439)
New Loadshape.curva_83E1122_M_1 npts=24 interval=1 pmult=( 0.0307 0.0307 0.0307 0.0307 0.0307 0.0307 0.0721 0.0721 0.0721 0.0721 0.0721 0.0721 0.0693 0.0693 0.0693 0.0693 0.0693 0.0693 0.0588 0.0588 0.0588 0.0588 0.0588 0.0588) qmult=( 0.0307 0.0307 0.0307 0.0307 0.0307 0.0307 0.0721 0.0721 0.0721 0.0721 0.0721 0.0721 0.0693 0.0693 0.0693 0.0693 0.0693 0.0693 0.0588 0.0588 0.0588 0.0588 0.0588 0.0588)
New Loadshape.curva_87L1201_TR1 npts=24 interval=1 pmult=( 0.0092 0.0092 0.0092 0.0092 0.0092 0.0092 0.0056 0.0056 0.0056 0.0056 0.0056 0.0056 0.0062 0.0062 0.0062 0.0062 0.0062 0.0062 0.0131 0.0131 0.0131 0.0131 0.0131 0.0131) qmult=( 0.0092 0.0092 0.0092 0.0092 0.0092 0.0092 0.0056 0.0056 0.0056 0.0056 0.0056 0.0056 0.0062 0.0062 0.0062 0.0062 0.0062 0.0062 0.0131 0.0131 0.0131 0.0131 0.0131 0.0131)
New Loadshape.curva_49L1070_TR1 npts=24 interval=1 pmult=( 0.3427 0.3427 0.3427 0.3427 0.3427 0.3427 0.4023 0.4023 0.4023 0.4023 0.4023 0.4023 0.4518 0.4518 0.4518 0.4518 0.4518 0.4518 0.6118 0.6118 0.6118 0.6118 0.6118 0.6118) qmult=( 0.3427 0.3427 0.3427 0.3427 0.3427 0.3427 0.4023 0.4023 0.4023 0.4023 0.4023 0.4023 0.4518 0.4518 0.4518 0.4518 0.4518 0.4518 0.6118 0.6118 0.6118 0.6118 0.6118 0.6118)
New Loadshape.curva_02E3869_M_1 npts=24 interval=1 pmult=( 0 0 0 0 0 0 0 0 0 0 0 0 0 0 0 0 0 0 0 0 0 0 0 0) qmult=( 0 0 0 0 0 0 0 0 0 0 0 0 0 0 0 0 0 0 0 0 0 0 0 0)
New Loadshape.curva_02E4204_M_1 npts=24 interval=1 pmult=( 0 0 0 0 0 0 0 0 0 0 0 0 0 0 0 0 0 0 0 0 0 0 0 0) qmult=( 0 0 0 0 0 0 0 0 0 0 0 0 0 0 0 0 0 0 0 0 0 0 0 0)
New Loadshape.curva_90E4832_TR1 npts=24 interval=1 pmult=( 0.9293 0.9293 0.9293 0.9293 0.9293 0.9293 0.5334 0.5334 0.5334 0.5334 0.5334 0.5334 0.5654 0.5654 0.5654 0.5654 0.5654 0.5654 1.0702 1.0702 1.0702 1.0702 1.0702 1.0702) qmult=( 0.9293 0.9293 0.9293 0.9293 0.9293 0.9293 0.5334 0.5334 0.5334 0.5334 0.5334 0.5334 0.5654 0.5654 0.5654 0.5654 0.5654 0.5654 1.0702 1.0702 1.0702 1.0702 1.0702 1.0702)
New Loadshape.curva_57E0980_TR1 npts=24 interval=1 pmult=( 0.1895 0.1895 0.1895 0.1895 0.1895 0.1895 0.1268 0.1268 0.1268 0.1268 0.1268 0.1268 0.1321 0.1321 0.1321 0.1321 0.1321 0.1321 0.2073 0.2073 0.2073 0.2073 0.2073 0.2073) qmult=( 0.1895 0.1895 0.1895 0.1895 0.1895 0.1895 0.1268 0.1268 0.1268 0.1268 0.1268 0.1268 0.1321 0.1321 0.1321 0.1321 0.1321 0.1321 0.2073 0.2073 0.2073 0.2073 0.2073 0.2073)
New Loadshape.curva_04L1127_M_1 npts=24 interval=1 pmult=( 0.4348 0.4348 0.4348 0.4348 0.4348 0.4348 0.4348 0.4348 0.4348 0.4348 0.4348 0.4348 0.4348 0.4348 0.4348 0.4348 0.4348 0.4348 0.4348 0.4348 0.4348 0.4348 0.4348 0.4348) qmult=( 0.4348 0.4348 0.4348 0.4348 0.4348 0.4348 0.4348 0.4348 0.4348 0.4348 0.4348 0.4348 0.4348 0.4348 0.4348 0.4348 0.4348 0.4348 0.4348 0.4348 0.4348 0.4348 0.4348 0.4348)
New Loadshape.curva_32E1043_TR1 npts=24 interval=1 pmult=( 0.5682 0.5682 0.5682 0.5682 0.5682 0.5682 0.2857 0.2857 0.2857 0.2857 0.2857 0.2857 0.3023 0.3023 0.3023 0.3023 0.3023 0.3023 0.6508 0.6508 0.6508 0.6508 0.6508 0.6508) qmult=( 0.5682 0.5682 0.5682 0.5682 0.5682 0.5682 0.2857 0.2857 0.2857 0.2857 0.2857 0.2857 0.3023 0.3023 0.3023 0.3023 0.3023 0.3023 0.6508 0.6508 0.6508 0.6508 0.6508 0.6508)
New Loadshape.curva_32E1597_TR1 npts=24 interval=1 pmult=( 0.0194 0.0194 0.0194 0.0194 0.0194 0.0194 0.0222 0.0222 0.0222 0.0222 0.0222 0.0222 0.0252 0.0252 0.0252 0.0252 0.0252 0.0252 0.0345 0.0345 0.0345 0.0345 0.0345 0.0345) qmult=( 0.0194 0.0194 0.0194 0.0194 0.0194 0.0194 0.0222 0.0222 0.0222 0.0222 0.0222 0.0222 0.0252 0.0252 0.0252 0.0252 0.0252 0.0252 0.0345 0.0345 0.0345 0.0345 0.0345 0.0345)
New Loadshape.curva_32E1726_TR1 npts=24 interval=1 pmult=( 1.0977 1.0977 1.0977 1.0977 1.0977 1.0977 1.2523 1.2523 1.2523 1.2523 1.2523 1.2523 1.407 1.407 1.407 1.407 1.407 1.407 1.8812 1.8812 1.8812 1.8812 1.8812 1.8812) qmult=( 1.0977 1.0977 1.0977 1.0977 1.0977 1.0977 1.2523 1.2523 1.2523 1.2523 1.2523 1.2523 1.407 1.407 1.407 1.407 1.407 1.407 1.8812 1.8812 1.8812 1.8812 1.8812 1.8812)
New Loadshape.curva_61E2134_TR1 npts=24 interval=1 pmult=( 0.601 0.601 0.601 0.601 0.601 0.601 0.6497 0.6497 0.6497 0.6497 0.6497 0.6497 0.7266 0.7266 0.7266 0.7266 0.7266 0.7266 1.019 1.019 1.019 1.019 1.019 1.019) qmult=( 0.601 0.601 0.601 0.601 0.601 0.601 0.6497 0.6497 0.6497 0.6497 0.6497 0.6497 0.7266 0.7266 0.7266 0.7266 0.7266 0.7266 1.019 1.019 1.019 1.019 1.019 1.019)
New Loadshape.curva_93E0066_TR1 npts=24 interval=1 pmult=( 0.4267 0.4267 0.4267 0.4267 0.4267 0.4267 0.5201 0.5201 0.5201 0.5201 0.5201 0.5201 0.5818 0.5818 0.5818 0.5818 0.5818 0.5818 0.7919 0.7919 0.7919 0.7919 0.7919 0.7919) qmult=( 0.4267 0.4267 0.4267 0.4267 0.4267 0.4267 0.5201 0.5201 0.5201 0.5201 0.5201 0.5201 0.5818 0.5818 0.5818 0.5818 0.5818 0.5818 0.7919 0.7919 0.7919 0.7919 0.7919 0.7919)
New Loadshape.curva_61E2872_TR1 npts=24 interval=1 pmult=( 0.3932 0.3932 0.3932 0.3932 0.3932 0.3932 0.4154 0.4154 0.4154 0.4154 0.4154 0.4154 0.4653 0.4653 0.4653 0.4653 0.4653 0.4653 0.6671 0.6671 0.6671 0.6671 0.6671 0.6671) qmult=( 0.3932 0.3932 0.3932 0.3932 0.3932 0.3932 0.4154 0.4154 0.4154 0.4154 0.4154 0.4154 0.4653 0.4653 0.4653 0.4653 0.4653 0.4653 0.6671 0.6671 0.6671 0.6671 0.6671 0.6671)
New Loadshape.curva_02E3107_TR1 npts=24 interval=1 pmult=( 0.7061 0.7061 0.7061 0.7061 0.7061 0.7061 0.6434 0.6434 0.6434 0.6434 0.6434 0.6434 0.7086 0.7086 0.7086 0.7086 0.7086 0.7086 1.0602 1.0602 1.0602 1.0602 1.0602 1.0602) qmult=( 0.7061 0.7061 0.7061 0.7061 0.7061 0.7061 0.6434 0.6434 0.6434 0.6434 0.6434 0.6434 0.7086 0.7086 0.7086 0.7086 0.7086 0.7086 1.0602 1.0602 1.0602 1.0602 1.0602 1.0602)
New Loadshape.curva_15E0937_TR1 npts=24 interval=1 pmult=( 0.3094 0.3094 0.3094 0.3094 0.3094 0.3094 0.379 0.379 0.379 0.379 0.379 0.379 0.422 0.422 0.422 0.422 0.422 0.422 0.5778 0.5778 0.5778 0.5778 0.5778 0.5778) qmult=( 0.3094 0.3094 0.3094 0.3094 0.3094 0.3094 0.379 0.379 0.379 0.379 0.379 0.379 0.422 0.422 0.422 0.422 0.422 0.422 0.5778 0.5778 0.5778 0.5778 0.5778 0.5778)
New Loadshape.curva_50E1041_TR1 npts=24 interval=1 pmult=( 0.367 0.367 0.367 0.367 0.367 0.367 0.3839 0.3839 0.3839 0.3839 0.3839 0.3839 0.4205 0.4205 0.4205 0.4205 0.4205 0.4205 0.5633 0.5633 0.5633 0.5633 0.5633 0.5633) qmult=( 0.367 0.367 0.367 0.367 0.367 0.367 0.3839 0.3839 0.3839 0.3839 0.3839 0.3839 0.4205 0.4205 0.4205 0.4205 0.4205 0.4205 0.5633 0.5633 0.5633 0.5633 0.5633 0.5633)
New Loadshape.curva_99E0315_M_1 npts=24 interval=1 pmult=( 1.087 1.087 1.087 1.087 1.087 1.087 1.087 1.087 1.087 1.087 1.087 1.087 1.087 1.087 1.087 1.087 1.087 1.087 1.087 1.087 1.087 1.087 1.087 1.087) qmult=( 1.087 1.087 1.087 1.087 1.087 1.087 1.087 1.087 1.087 1.087 1.087 1.087 1.087 1.087 1.087 1.087 1.087 1.087 1.087 1.087 1.087 1.087 1.087 1.087)
New Loadshape.curva_99E0258_TR1 npts=24 interval=1 pmult=( 0.0288 0.0288 0.0288 0.0288 0.0288 0.0288 0.032 0.032 0.032 0.032 0.032 0.032 0.0361 0.0361 0.0361 0.0361 0.0361 0.0361 0.0487 0.0487 0.0487 0.0487 0.0487 0.0487) qmult=( 0.0288 0.0288 0.0288 0.0288 0.0288 0.0288 0.032 0.032 0.032 0.032 0.032 0.032 0.0361 0.0361 0.0361 0.0361 0.0361 0.0361 0.0487 0.0487 0.0487 0.0487 0.0487 0.0487)
New Loadshape.curva_90E5064_M_1 npts=24 interval=1 pmult=( 0.3848 0.3848 0.3848 0.3848 0.3848 0.3848 0.3848 0.3848 0.3848 0.3848 0.3848 0.3848 0.3848 0.3848 0.3848 0.3848 0.3848 0.3848 0.3848 0.3848 0.3848 0.3848 0.3848 0.3848) qmult=( 0.3848 0.3848 0.3848 0.3848 0.3848 0.3848 0.3848 0.3848 0.3848 0.3848 0.3848 0.3848 0.3848 0.3848 0.3848 0.3848 0.3848 0.3848 0.3848 0.3848 0.3848 0.3848 0.3848 0.3848)
New Loadshape.curva_98L1178_TR1 npts=24 interval=1 pmult=( 0.1227 0.1227 0.1227 0.1227 0.1227 0.1227 0.1255 0.1255 0.1255 0.1255 0.1255 0.1255 0.1401 0.1401 0.1401 0.1401 0.1401 0.1401 0.203 0.203 0.203 0.203 0.203 0.203) qmult=( 0.1227 0.1227 0.1227 0.1227 0.1227 0.1227 0.1255 0.1255 0.1255 0.1255 0.1255 0.1255 0.1401 0.1401 0.1401 0.1401 0.1401 0.1401 0.203 0.203 0.203 0.203 0.203 0.203)
New Loadshape.curva_32E1991_TR1 npts=24 interval=1 pmult=( 0 0 0 0 0 0 0 0 0 0 0 0 0 0 0 0 0 0 0 0 0 0 0 0) qmult=( 0 0 0 0 0 0 0 0 0 0 0 0 0 0 0 0 0 0 0 0 0 0 0 0)
New Loadshape.curva_61E1841_TR1 npts=24 interval=1 pmult=( 0.6072 0.6072 0.6072 0.6072 0.6072 0.6072 0.6703 0.6703 0.6703 0.6703 0.6703 0.6703 0.7372 0.7372 0.7372 0.7372 0.7372 0.7372 0.9898 0.9898 0.9898 0.9898 0.9898 0.9898) qmult=( 0.6072 0.6072 0.6072 0.6072 0.6072 0.6072 0.6703 0.6703 0.6703 0.6703 0.6703 0.6703 0.7372 0.7372 0.7372 0.7372 0.7372 0.7372 0.9898 0.9898 0.9898 0.9898 0.9898 0.9898)
New Loadshape.curva_80L2099_TR1 npts=24 interval=1 pmult=( 0.1837 0.1837 0.1837 0.1837 0.1837 0.1837 0.2044 0.2044 0.2044 0.2044 0.2044 0.2044 0.2236 0.2236 0.2236 0.2236 0.2236 0.2236 0.2953 0.2953 0.2953 0.2953 0.2953 0.2953) qmult=( 0.1837 0.1837 0.1837 0.1837 0.1837 0.1837 0.2044 0.2044 0.2044 0.2044 0.2044 0.2044 0.2236 0.2236 0.2236 0.2236 0.2236 0.2236 0.2953 0.2953 0.2953 0.2953 0.2953 0.2953)
New Loadshape.curva_64E1626_TR1 npts=24 interval=1 pmult=( 0.2491 0.2491 0.2491 0.2491 0.2491 0.2491 0.3027 0.3027 0.3027 0.3027 0.3027 0.3027 0.3363 0.3363 0.3363 0.3363 0.3363 0.3363 0.4519 0.4519 0.4519 0.4519 0.4519 0.4519) qmult=( 0.2491 0.2491 0.2491 0.2491 0.2491 0.2491 0.3027 0.3027 0.3027 0.3027 0.3027 0.3027 0.3363 0.3363 0.3363 0.3363 0.3363 0.3363 0.4519 0.4519 0.4519 0.4519 0.4519 0.4519)
New Loadshape.curva_92E1301_TR1 npts=24 interval=1 pmult=( 0.7056 0.7056 0.7056 0.7056 0.7056 0.7056 0.8431 0.8431 0.8431 0.8431 0.8431 0.8431 0.9438 0.9438 0.9438 0.9438 0.9438 0.9438 1.2617 1.2617 1.2617 1.2617 1.2617 1.2617) qmult=( 0.7056 0.7056 0.7056 0.7056 0.7056 0.7056 0.8431 0.8431 0.8431 0.8431 0.8431 0.8431 0.9438 0.9438 0.9438 0.9438 0.9438 0.9438 1.2617 1.2617 1.2617 1.2617 1.2617 1.2617)
New Loadshape.curva_92E1343_TR1 npts=24 interval=1 pmult=( 0.4937 0.4937 0.4937 0.4937 0.4937 0.4937 0.4756 0.4756 0.4756 0.4756 0.4756 0.4756 0.5444 0.5444 0.5444 0.5444 0.5444 0.5444 0.79 0.79 0.79 0.79 0.79 0.79) qmult=( 0.4937 0.4937 0.4937 0.4937 0.4937 0.4937 0.4756 0.4756 0.4756 0.4756 0.4756 0.4756 0.5444 0.5444 0.5444 0.5444 0.5444 0.5444 0.79 0.79 0.79 0.79 0.79 0.79)
New Loadshape.curva_89L2325_TR1 npts=24 interval=1 pmult=( 0.1871 0.1871 0.1871 0.1871 0.1871 0.1871 0.2578 0.2578 0.2578 0.2578 0.2578 0.2578 0.2828 0.2828 0.2828 0.2828 0.2828 0.2828 0.4008 0.4008 0.4008 0.4008 0.4008 0.4008) qmult=( 0.1871 0.1871 0.1871 0.1871 0.1871 0.1871 0.2578 0.2578 0.2578 0.2578 0.2578 0.2578 0.2828 0.2828 0.2828 0.2828 0.2828 0.2828 0.4008 0.4008 0.4008 0.4008 0.4008 0.4008)
New Loadshape.curva_64E2403_TR1 npts=24 interval=1 pmult=( 0.1679 0.1679 0.1679 0.1679 0.1679 0.1679 0.1446 0.1446 0.1446 0.1446 0.1446 0.1446 0.1619 0.1619 0.1619 0.1619 0.1619 0.1619 0.2657 0.2657 0.2657 0.2657 0.2657 0.2657) qmult=( 0.1679 0.1679 0.1679 0.1679 0.1679 0.1679 0.1446 0.1446 0.1446 0.1446 0.1446 0.1446 0.1619 0.1619 0.1619 0.1619 0.1619 0.1619 0.2657 0.2657 0.2657 0.2657 0.2657 0.2657)
New Loadshape.curva_60E0367_TR1 npts=24 interval=1 pmult=( 0.6148 0.6148 0.6148 0.6148 0.6148 0.6148 0.7223 0.7223 0.7223 0.7223 0.7223 0.7223 0.8021 0.8021 0.8021 0.8021 0.8021 0.8021 1.1105 1.1105 1.1105 1.1105 1.1105 1.1105) qmult=( 0.6148 0.6148 0.6148 0.6148 0.6148 0.6148 0.7223 0.7223 0.7223 0.7223 0.7223 0.7223 0.8021 0.8021 0.8021 0.8021 0.8021 0.8021 1.1105 1.1105 1.1105 1.1105 1.1105 1.1105)
New Loadshape.curva_40E1169_TR1 npts=24 interval=1 pmult=( 0.0601 0.0601 0.0601 0.0601 0.0601 0.0601 0.0766 0.0766 0.0766 0.0766 0.0766 0.0766 0.0849 0.0849 0.0849 0.0849 0.0849 0.0849 0.117 0.117 0.117 0.117 0.117 0.117) qmult=( 0.0601 0.0601 0.0601 0.0601 0.0601 0.0601 0.0766 0.0766 0.0766 0.0766 0.0766 0.0766 0.0849 0.0849 0.0849 0.0849 0.0849 0.0849 0.117 0.117 0.117 0.117 0.117 0.117)
New Loadshape.curva_64E0305_TR1 npts=24 interval=1 pmult=( 0.1655 0.1655 0.1655 0.1655 0.1655 0.1655 0.2002 0.2002 0.2002 0.2002 0.2002 0.2002 0.2221 0.2221 0.2221 0.2221 0.2221 0.2221 0.3041 0.3041 0.3041 0.3041 0.3041 0.3041) qmult=( 0.1655 0.1655 0.1655 0.1655 0.1655 0.1655 0.2002 0.2002 0.2002 0.2002 0.2002 0.2002 0.2221 0.2221 0.2221 0.2221 0.2221 0.2221 0.3041 0.3041 0.3041 0.3041 0.3041 0.3041)
New Loadshape.curva_64E0575_TR1 npts=24 interval=1 pmult=( 0.3008 0.3008 0.3008 0.3008 0.3008 0.3008 0.3272 0.3272 0.3272 0.3272 0.3272 0.3272 0.3545 0.3545 0.3545 0.3545 0.3545 0.3545 0.4561 0.4561 0.4561 0.4561 0.4561 0.4561) qmult=( 0.3008 0.3008 0.3008 0.3008 0.3008 0.3008 0.3272 0.3272 0.3272 0.3272 0.3272 0.3272 0.3545 0.3545 0.3545 0.3545 0.3545 0.3545 0.4561 0.4561 0.4561 0.4561 0.4561 0.4561)
New Loadshape.curva_99E0272_M_1 npts=24 interval=1 pmult=( 0.7971 0.7971 0.7971 0.7971 0.7971 0.7971 0.7971 0.7971 0.7971 0.7971 0.7971 0.7971 0.7971 0.7971 0.7971 0.7971 0.7971 0.7971 0.7971 0.7971 0.7971 0.7971 0.7971 0.7971) qmult=( 0.7971 0.7971 0.7971 0.7971 0.7971 0.7971 0.7971 0.7971 0.7971 0.7971 0.7971 0.7971 0.7971 0.7971 0.7971 0.7971 0.7971 0.7971 0.7971 0.7971 0.7971 0.7971 0.7971 0.7971)