New line.D_AGF01I2|D_AG3 phases=3 bus1=PA_D_AGF01I2 bus2=PA_D_AG3 length=0.16 units=km linecode=CCN_95
New line.D_AG1|D_AG3 phases=3 bus1=PA_D_AG3 bus2=PA_D_AG1 length=0.53 units=km linecode=CCN_95
New line.AGF01I2|D_AGF01I2 phases=3 bus1=COMT_AGF01I2 bus2=PA_D_AGF01I2 length=0.13 units=km linecode=CCN_95
New line.D_AG1|SG92E2724 phases=3 bus1=PA_D_AG1 bus2=DMUM_SG92E2724 length=0.16 units=km linecode=CCN_95
New line.D_FH94E0506|D_F34E04 phases=3 bus1=PA_D_FH94E0506 bus2=PA_D_F34E0487 length=0.19 units=km linecode=CCN_95
New line.D_SF34E0409|D_F34E04 phases=3 bus1=PA_D_F34E0487 bus2=PA_D_SF34E0409 length=0.77 units=km linecode=CCN_95
New line.EL_115214280 phases=3 bus1=PA_D_FH94E0506 bus2=BVIRT_FH94E0506 length=0.01 units=km linecode=CCN_25
New line.D_H94E0383|D_FH94E05 phases=3 bus1=PA_D_H94E0383 bus2=PA_D_FH94E0506 length=1.23 units=km linecode=CCN_95
New line.D_H94E0383|D_G92E283 phases=3 bus1=PA_D_G92E2831 bus2=PA_D_H94E0383 length=0.12 units=km linecode=CCN_95
New line.E_-2691602|D_G92E283 phases=3 bus1=PA_E_-2691602 bus2=PA_D_G92E2831 length=0.89 units=km linecode=CCN_95
New line.SG92E2724|E_-2691602 phases=3 bus1=BVIRT_SG92E2724 bus2=PA_E_-2691602 length=0.09 units=km linecode=CCN_95
New line.SF34E0409|E_-2523928 phases=3 bus1=DMUM_SF34E0409 bus2=PA_E_-2523928 length=0.15 units=km linecode=SPC_240
New line.E_-2523928|E_-252393 phases=3 bus1=PA_E_-2523928 bus2=PA_E_-2523938 length=1.37 units=km linecode=SPC_240
New line.E_-2523938|E_-252394 phases=3 bus1=PA_E_-2523938 bus2=PA_E_-2523946 length=1.21 units=km linecode=SPC_240
New line.E_-2523946|E_-252394 phases=3 bus1=PA_E_-2523946 bus2=PA_E_-2523948 length=0.22 units=km linecode=SPC_240
New line.E_-2523948|E_-252396 phases=3 bus1=PA_E_-2523948 bus2=PA_E_-2523962 length=0.9 units=km linecode=SPC_240
New line.E_-2523962|E_-252396 phases=3 bus1=PA_E_-2523962 bus2=PA_E_-2523964 length=0.18 units=km linecode=SPC_240
New line.E_-2523964|E_-252397 phases=3 bus1=PA_E_-2523964 bus2=PA_E_-2523970 length=0.9 units=km linecode=SPC_240
New line.E_-2523970|E_-252397 phases=3 bus1=PA_E_-2523970 bus2=PA_E_-2523974 length=0.77 units=km linecode=SPC_240
New line.E_-2523974|E_-252410 phases=3 bus1=PA_E_-2523974 bus2=PA_E_-2524106 length=0.28 units=km linecode=SPC_240
New line.EL_237969588 phases=3 bus1=PA_E_-2524106 bus2=PA_D_F35E2570 length=2.71 units=km linecode=SPC_240
New line.EL_237969642 phases=3 bus1=PA_D_F35E2570 bus2=PA_D_F53E2704 length=1.24 units=km linecode=SPC_240
New line.EL_237969631 phases=3 bus1=PA_D_F53E2704 bus2=PA_E_-11528486 length=3 units=km linecode=SPC_240
New line.EL_237969620 phases=3 bus1=PA_E_-11528486 bus2=PA_D_F35E3265 length=3.25 units=km linecode=SPC_240
New line.EL_167655460 phases=3 bus1=PA_D_F35E3265 bus2=PA_E_-3130024 length=3.34 units=km linecode=SPC_240
New line.EL_178356939 phases=3 bus1=PA_E_-3130024 bus2=PA_E_-3130025 length=0.39 units=km linecode=SPC_240
New line.EL_237969566 phases=3 bus1=PA_E_-3130025 bus2=PA_D_U91E4653 length=3.41 units=km linecode=SPC_240
New line.EL_190890814 phases=3 bus1=PA_D_U91E4653 bus2=PA_D_U91E4719 length=0.54 units=km linecode=SPC_240
New line.EL_178356855 phases=3 bus1=PA_D_U91E4719 bus2=PA_E_-3130105 length=1.39 units=km linecode=CCN_95
New line.EL_190890830 phases=3 bus1=PA_E_-3130105 bus2=PA_E_-3130118 length=2.33 units=km linecode=CCN_95
New line.EL_224516413 phases=3 bus1=PA_E_-3130118 bus2=PA_D_FU91S5343 length=2.69 units=km linecode=CCN_95
New line.EL_178356735 phases=3 bus1=PA_D_FU91S5343 bus2=BVIRT_SU91E5628 length=1.92 units=km linecode=CCN_95
New line.EL_224516426 phases=3 bus1=PA_D_FU91S5343 bus2=BVIRT_FU91S5343 length=0.007 units=km linecode=CCN_25
New line.34E0508|D_FF34E0585 phases=3 bus1=CD_34E0508 bus2=PA_D_FF34E0585 length=0.73 units=km linecode=CCN_25
New line.FH94E0506|34E0508 phases=3 bus1=DMUM_FH94E0506 bus2=CD_34E0508 length=0.07 units=km linecode=CCN_25
New line.EL_1048193 phases=3 bus1=PA_D_FF34E0585 bus2=BVIRT_FF34E0585 length=0.01 units=km linecode=CCN_25
New line.EL_1048187 phases=3 bus1=PA_D_FF34E0585 bus2=PA_EL_1196718 length=0.36 units=km linecode=CCN_25
New line.D_FU91E5131|D_U91E52 phases=3 bus1=PA_D_U91E5215 bus2=PA_D_FU91E5131 length=0.83 units=km linecode=CCN_95
New line.D_U91E5215|E_-156360 phases=3 bus1=PA_E_-1563608 bus2=PA_D_U91E5215 length=0.8 units=km linecode=CCN_95
New line.91E5092|D_FU91E5131 phases=3 bus1=PA_D_FU91E5131 bus2=CD_91E5092 length=0.4 units=km linecode=CCN_95
New line.EL_153197170 phases=3 bus1=PA_D_FU91E5131 bus2=DMUM_FU91E5131 length=0.01 units=km linecode=CCN_25
New line.E_-1563608|E_-156361 phases=3 bus1=PA_E_-1563614 bus2=PA_E_-1563608 length=1.15 units=km linecode=CCN_95
New line.EL_160090044 phases=3 bus1=CD_91E5092 bus2=DMUM_SU91E5061 length=0.41 units=km linecode=CCN_95
New line.E_-1563614|D_FJ42E1 phases=3 bus1=PA_D_FJ42E1040 bus2=PA_E_-1563614 length=0.78 units=km linecode=CCN_95
New line.D_FJ42E1040|FJ42E10 phases=3 bus1=PA_D_FJ42E1040 bus2=DMUM_FJ42E1040 length=0.73 units=km linecode=CCN_25
New line.D_FJ42E1040|D_D_SU9 phases=3 bus1=PA_D_D_SU91E5547 bus2=PA_D_FJ42E1040 length=0.8 units=km linecode=CCN_95
New line.D_D_SU91E5547|D_SU91 phases=3 bus1=PA_D_SU91E5547 bus2=PA_D_D_SU91E5547 length=0.18 units=km linecode=CCN_95
New line.D_U91E5614|D_SU91E55 phases=3 bus1=PA_D_SU91E5547 bus2=PA_D_U91E5614 length=0.74 units=km linecode=CCN_95
New line.EL_221798848 phases=3 bus1=PA_D_SU91E5628 bus2=PA_D_SU91E5547 length=0.25 units=km linecode=CCN_95
New line.D_U91E5614|91E5688 phases=3 bus1=PA_D_U91E5614 bus2=CD_91E5688 length=0.39 units=km linecode=CCN_95
New line.EL_165381603 phases=3 bus1=DMUM_SU91E5628 bus2=PA_D_SU91E5628 length=0.01 units=km linecode=CAA_4AWG
New line.EL_221798754 phases=3 bus1=PA_D_SU91E5628 bus2=DMUM_FK27E0971 length=0.09 units=km linecode=CCN_25
New line.EL_208693393 phases=3 bus1=CD_91E5688 bus2=PA_D_RG_U91E5671 length=0.19 units=km linecode=CCN_95
New line.EL_172215739 phases=3 bus1=PA_D_4U91E5732 bus2=BVIRT_6U91E5732 length=0.02 units=km linecode=CCN_25
New line.EL_172215757 phases=3 bus1=PA_D_4U91E5732 bus2=BVIRT_4U91E5732 length=0.02 units=km linecode=CCN_95
New line.EL_212906 phases=3 bus1=PA_D_RG_U91E5671 bus2=bar_1 length=0.01 units=km linecode=CCN_95
New line.EL_212906 phases=3 bus1=bar_1 bus2=bar_2 length=0.01 units=km linecode=CCN_95
New line.EL_212906 phases=3 bus1=bar_2 bus2=PA_D_4U91E5732 length=0.1 units=km linecode=CCN_95
New line.EL_224516352 phases=3 bus1=PA_E_-10968873 bus2=PA_D_T80E0970 length=0.32 units=km linecode=CCN_25
New line.EL_224516378 phases=3 bus1=PA_D_T80E0970 bus2=PA_E_-10968879 length=0.32 units=km linecode=CCN_25
New line.EL_224516346 phases=3 bus1=DMUM_FU91S5343 bus2=PA_E_-10968873 length=0.1 units=km linecode=CCN_25
New line.EL_224516384 phases=3 bus1=PA_E_-10968879 bus2=CD_80E1234 length=2.38 units=km linecode=CCN_25
New line.FF34E0585|34E0585 phases=3 bus1=DMUM_FF34E0585 bus2=CD_34E0585 length=0.19 units=km linecode=CCN_25
New line.EL_154950210 phases=3 bus1=BVIRT_FU91E5131 bus2=CUMT_BCU91E5131 length=0.01 units=km linecode=CCN_25
New line.EL_172215751 phases=3 bus1=DMUM_4U91E5732 bus2=BVIRT_SU91E5732 length=0.02 units=km linecode=CCN_95
New line.EL_215472 phases=3 bus1=PA_D_FU91E4939 bus2=BVIRT_FU91E4939 length=0.02 units=km linecode=CCN_25
New line.E_-1554294|D_FU91E49 phases=3 bus1=PA_D_FU91E4939 bus2=PA_E_-1554294 length=0.76 units=km linecode=CCN_95
New line.D_FU91E4939|D_FU91E4 phases=3 bus1=PA_D_FU91E4961 bus2=PA_D_FU91E4939 length=0.23 units=km linecode=CCN_95
New line.E_-1554287|E_-155429 phases=3 bus1=PA_E_-1554294 bus2=PA_E_-1554287 length=1.02 units=km linecode=CCN_95
New line.D_FU91E4961|D_FU91E5 phases=3 bus1=PA_D_FU91E5016 bus2=PA_D_FU91E4961 length=0.34 units=km linecode=CCN_95
New line.D_FU91E4765|E_-15542 phases=3 bus1=PA_E_-1554287 bus2=PA_D_FU91E4765 length=0.31 units=km linecode=CCN_95
New line.EL_118269800 phases=3 bus1=PA_D_FU91E5016 bus2=DMUM_FU91E5016 length=0.02 units=km linecode=CCN_25
New line.EL_212320788 phases=3 bus1=BVIRT_SU91E5061 bus2=PA_D_FU91E5016 length=0.44 units=km linecode=CCN_95
New line.EL_117061411 phases=3 bus1=PA_D_FU91E4765 bus2=BVIRT_FU91E4765 length=0.01 units=km linecode=CCN_25
New line.D_FU91E4687|D_FU91E4 phases=3 bus1=PA_D_FU91E4765 bus2=PA_D_FU91E4687 length=0.59 units=km linecode=CCN_95
New line.D_FU91E4687|FH94S212 phases=3 bus1=PA_D_FU91E4687 bus2=DMUM_FH94S2125 length=0.23 units=km linecode=CCN_95
New line.EL_221798770 phases=3 bus1=BVIRT_FK27E0971 bus2=CD_27E1076 length=1.04 units=km linecode=CCN_25
New line.42E1200|EL_1227709 phases=3 bus1=CD_42E1200 bus2=PA_EL_1227709 length=0.42 units=km linecode=CCN_25
New line.FJ42E1040|42E1200 phases=3 bus1=BVIRT_FJ42E1040 bus2=CD_42E1200 length=1.59 units=km linecode=CCN_25
New line.EL_172215745 phases=3 bus1=DMUM_SU91E5732 bus2=BVIRT_5U91E5732 length=0.02 units=km linecode=CCN_95
New line.D_A88L2085|88L2072 phases=3 bus1=PA_D_A88L2085 bus2=CD_88L2072 length=0.12 units=km linecode=CCN_25
New line.FU91E4687|D_A88L2085 phases=3 bus1=DMUM_FU91E4687 bus2=PA_D_A88L2085 length=0.08 units=km linecode=CCN_95
New line.FU91E4961|61E1143 phases=3 bus1=DMUM_FU91E4961 bus2=CD_61E1143 length=1.58 units=km linecode=CCN_25
New line.FU91E4765|91E4735 phases=3 bus1=DMUM_FU91E4765 bus2=CD_91E4735 length=0.37 units=km linecode=CCN_25
New line.FU91E4939|91E4939 phases=3 bus1=DMUM_FU91E4939 bus2=CD_91E4939 length=0.11 units=km linecode=CCN_25
New line.D_G71L1023|FG71L1039 phases=3 bus1=PA_D_G71L1023 bus2=BVIRT_FG71L1039 length=0.16 units=km linecode=CCN_25
New line.FU91E5016|D_G71L1023 phases=3 bus1=BVIRT_FU91E5016 bus2=PA_D_G71L1023 length=0.04 units=km linecode=CCN_25
New line.D_FY41L1000|D_O53E07 phases=3 bus1=PA_D_FY41L1000 bus2=PA_D_O53E0737 length=0.1 units=km linecode=CCN_25
New line.D_FY41L1000|94S2338 phases=3 bus1=PA_D_FY41L1000 bus2=CD_94S2338 length=0.81 units=km linecode=CCN_25
New line.EL_154949994 phases=3 bus1=BVIRT_FH94S2125 bus2=PA_D_FY41L1000 length=1.4 units=km linecode=CCN_95
New line.D_O53E0737|D_O53E066 phases=3 bus1=PA_D_O53E0737 bus2=PA_D_O53E0661 length=0.78 units=km linecode=CCN_25
New line.D_O53E0661|FY41L1000 phases=3 bus1=PA_D_O53E0661 bus2=BVIRT_FY41L1000 length=0.42 units=km linecode=CCN_25
New line.D_F90E1070|D_FT21E20 phases=3 bus1=PA_D_F90E1070 bus2=PA_D_FT21E2000 length=0.48 units=km linecode=CCN_95
New line.EL_122147199 phases=3 bus1=PA_D_FT21E2000 bus2=BVIRT_SF90E1336 length=2.24 units=km linecode=CCN_95
New line.EL_213908 phases=3 bus1=PA_D_FT21E2000 bus2=DMUM_FT21E2000 length=0.46 units=km linecode=CCN_25
New line.D_FF90E1021|D_F90E10 phases=3 bus1=PA_D_FF90E1021 bus2=PA_D_F90E1070 length=0.49 units=km linecode=CCN_95
New line.90E1011|D_FF90E1021 phases=3 bus1=CD_90E1011 bus2=PA_D_FF90E1021 length=0.1 units=km linecode=CCN_95
New line.EL_152424367 phases=3 bus1=PA_D_FF90E1021 bus2=BVIRT_FF90E1021 length=0.01 units=km linecode=CCN_25
New line.EL_114411043 phases=3 bus1=PA_D_F90E0912 bus2=CD_90E1011 length=1 units=km linecode=CCN_95
New line.EL_152741406 phases=3 bus1=PA_D_FF94E0021 bus2=PA_D_F90E0912 length=0.21 units=km linecode=CCN_95
New line.EL_199825812 phases=3 bus1=CD_90E0848 bus2=PA_D_FF94E0021 length=0.42 units=km linecode=CCN_95
New line.EL_212916 phases=3 bus1=PA_D_F90E0804 bus2=CD_90E0848 length=0.42 units=km linecode=CCN_95
New line.EL_33234149 phases=3 bus1=PA_D_U91E5743 bus2=PA_D_F90E0804 length=0.58 units=km linecode=CCN_95
New line.EL_172215763 phases=3 bus1=PA_D_5U91E5732 bus2=PA_D_U91E5743 length=0.27 units=km linecode=CCN_95
New line.EL_216237911 phases=3 bus1=PA_D_U91E5743 bus2=PA_D_F52E3309 length=0.03 units=km linecode=CCN_25
New line.EL_172215733 phases=3 bus1=PA_D_5U91E5732 bus2=DMUM_6U91E5732 length=0.02 units=km linecode=CCN_25
New line.EL_165499602 phases=3 bus1=DMUM_5U91E5732 bus2=PA_D_5U91E5732 length=0.01 units=km linecode=CCN_95
New line.EL_213840 phases=3 bus1=PA_D_F52E3309 bus2=DMUM_SF52E3309 length=0.16 units=km linecode=CCN_25
New line.FG71L1039|71L1039 phases=3 bus1=DMUM_FG71L1039 bus2=CD_71L1039 length=0.03 units=km linecode=CCN_25
New line.FY41L1000|41L1000 phases=3 bus1=DMUM_FY41L1000 bus2=CD_41L1000 length=0.14 units=km linecode=CCN_25
New line.EL_732675 phases=3 bus1=PA_D_SF52E3280 bus2=DMUM_SF52E3280 length=0.03 units=km linecode=CCN_50
New line.EL_225208531 phases=3 bus1=BVIRT_SF52E3309 bus2=PA_D_SF52E3280 length=0.31 units=km linecode=CCN_50
New line.EL_225208525 phases=3 bus1=PA_D_SF52E3280 bus2=DMUM_6F52E3280 length=0.03 units=km linecode=CCN_50
New line.EL_213934 phases=3 bus1=PA_D_FF97E0022 bus2=DMUM_FF97E0022 length=0.26 units=km linecode=CCN_25
New line.90E1382|D_FF97E0022 phases=3 bus1=CD_90E1382 bus2=PA_D_FF97E0022 length=1.13 units=km linecode=CCN_95
New line.D_FF97E0022|SF90E163 phases=3 bus1=PA_D_FF97E0022 bus2=DMUM_SF90E1636 length=1.35 units=km linecode=CCN_95
New line.SF90E1336|90E1382 phases=3 bus1=DMUM_SF90E1336 bus2=CD_90E1382 length=0.49 units=km linecode=CCN_95
New line.FT21E2000|21E1800 phases=3 bus1=BVIRT_FT21E2000 bus2=CD_21E1800 length=1.98 units=km linecode=CCN_25
New line.21E1800|EL_1227798 phases=3 bus1=CD_21E1800 bus2=PA_EL_1227798 length=0.36 units=km linecode=CCN_25
New line.FF90E1021|90E1021 phases=3 bus1=DMUM_FF90E1021 bus2=CD_90E1021 length=0.15 units=km linecode=CCN_25
New line.EL_40214048 phases=3 bus1=PA_D_FF90E1843 bus2=DMUM_FF90E1843 length=0.01 units=km linecode=CCN_25
New line.D_FF90E1843|SF90E163 phases=3 bus1=BVIRT_SF90E1636 bus2=PA_D_FF90E1843 length=2.07 units=km linecode=CCN_95
New line.D_FF90E1843|SF90E189 phases=3 bus1=PA_D_FF90E1843 bus2=DMUM_SF90E1890 length=0.41 units=km linecode=CCN_95
New line.FF97E0022|97E0238 phases=3 bus1=BVIRT_FF97E0022 bus2=CD_97E0238 length=2.11 units=km linecode=CCN_25
New line.97E0238|D_F97E0376 phases=3 bus1=CD_97E0238 bus2=PA_D_F97E0376 length=1.36 units=km linecode=CCN_25
New line.D_F97E0376|D_FN18E00 phases=3 bus1=PA_D_F97E0376 bus2=PA_D_FN18E0003 length=0.37 units=km linecode=CCN_25
New line.EL_168187849 phases=3 bus1=PA_D_FN18E0003 bus2=DMUM_FN18E0003 length=0.01 units=km linecode=CCN_25
New line.D_FN18E0003|D_W30E10 phases=3 bus1=PA_D_FN18E0003 bus2=PA_D_W30E1001 length=1.15 units=km linecode=CCN_25
New line.D_W30E1001|D_W29E119 phases=3 bus1=PA_D_W30E1001 bus2=PA_D_W29E1196 length=0.26 units=km linecode=CCN_25
New line.D_W29E1196|30E1035 phases=3 bus1=PA_D_W29E1196 bus2=CD_30E1035 length=0.34 units=km linecode=CCN_25
New line.30E1035|D_TW30E1070 phases=3 bus1=CD_30E1035 bus2=PA_D_TW30E1070 length=0.33 units=km linecode=CCN_25
New line.EL_195533409 phases=3 bus1=PA_D_TW30E1070 bus2=CD_30E1070 length=0.04 units=km linecode=CCN_25
New line.EL_153858340 phases=3 bus1=PA_D_TW30E1070 bus2=BVIRT_FK30E1753 length=2.92 units=km linecode=CCN_25
New line.EL_157875885 phases=3 bus1=PA_D_SF90E1910 bus2=PA_E_-2474992 length=0.34 units=km linecode=CCN_95
New line.D_SF90E1910|SF90E189 phases=3 bus1=BVIRT_SF90E1890 bus2=PA_D_SF90E1910 length=0.23 units=km linecode=CCN_95
New line.EL_237750528 phases=3 bus1=PA_E_-2474992 bus2=CD_90E2031 length=0.9 units=km linecode=CCN_95
New line.EL_157875685 phases=3 bus1=CD_90E2031 bus2=PA_D_RF90E2085 length=0.48 units=km linecode=CCN_95
New line.EL_237750502 phases=3 bus1=PA_D_RF90E2085 bus2=BVIRT_RF90E2085 length=0.04 units=km linecode=CCN_95
New line.E_-558710|E_-558716 phases=3 bus1=PA_E_-558710 bus2=PA_E_-558716 length=0.38 units=km linecode=CCN_25
New line.E_-558708|E_-558710 phases=3 bus1=PA_E_-558708 bus2=PA_E_-558710 length=0.35 units=km linecode=CCN_25
New line.E_-558716|E_-558718 phases=3 bus1=PA_E_-558716 bus2=PA_E_-558718 length=0.34 units=km linecode=CCN_25
New line.E_-558706|E_-558708 phases=3 bus1=PA_E_-558706 bus2=PA_E_-558708 length=0.4 units=km linecode=CCN_25
New line.E_-558718|28E0339 phases=3 bus1=PA_E_-558718 bus2=CD_28E0339 length=0.32 units=km linecode=CCN_25
New line.E_-558704|E_-558706 phases=3 bus1=PA_E_-558704 bus2=PA_E_-558706 length=0.26 units=km linecode=CCN_25
New line.E_-558696|E_-558704 phases=3 bus1=PA_E_-558696 bus2=PA_E_-558704 length=0.34 units=km linecode=CCN_25
New line.28E0065|E_-558696 phases=3 bus1=CD_28E0065 bus2=PA_E_-558696 length=0.22 units=km linecode=CCN_25
New line.D_N28E0001A|28E0065 phases=3 bus1=PA_D_N28E0001A bus2=CD_28E0065 length=0.68 units=km linecode=CCN_25
New line.D_N28E0001A|FF90E184 phases=3 bus1=BVIRT_FF90E1843 bus2=PA_D_N28E0001A length=0.12 units=km linecode=CCN_25
New line.FN18E0003|E_-3093927 phases=3 bus1=BVIRT_FN18E0003 bus2=PA_E_-3093927 length=0.03 units=km linecode=CCN_25
New line.E_-3093927|18E0096 phases=3 bus1=PA_E_-3093927 bus2=CD_18E0096 length=0.87 units=km linecode=CCN_25
New line.FK30E1753|30E1713 phases=3 bus1=DMUM_FK30E1753 bus2=CD_30E1713 length=0.4 units=km linecode=CCN_25
New line.EL_237750474 phases=3 bus1=PA_D_6F90E2085 bus2=DMUM_6F90E2085 length=0.02 units=km linecode=CCN_95
New line.EL_237750491 phases=3 bus1=PA_D_6F90E2085 bus2=BVIRT_SF90E2130 length=0.18 units=km linecode=CCN_95
New line.EL_237750485 phases=3 bus1=DMUM_RF90E2085 bus2=PA_D_6F90E2085 length=0.04 units=km linecode=CCN_95
New line.EL_237750508 phases=3 bus1=BVIRT_D_RF90E2085 bus2=BVIRT_6F90E2085 length=0.02 units=km linecode=CCN_95
New line.EL_151171867 phases=3 bus1=PA_D_SF90E2165 bus2=CD_02E4914 length=1.35 units=km linecode=CCN_95
New line.EL_157875715 phases=3 bus1=DMUM_SF90E2130 bus2=PA_D_SF90E2165 length=0.18 units=km linecode=CCN_95
New line.EL_157875721 phases=3 bus1=PA_D_SF90E2165 bus2=DMUM_SF90E2165 length=0.06 units=km linecode=CCN_95
New line.02E4792|02E4914 phases=3 bus1=CD_02E4914 bus2=CD_02E4792 length=1.21 units=km linecode=CCN_95
New line.D_FI02E4712|02E4792 phases=3 bus1=CD_02E4792 bus2=PA_D_FI02E4712 length=0.81 units=km linecode=CCN_95
New line.EL_625104 phases=3 bus1=PA_D_FI02E4712 bus2=DMUM_FI02E4712 length=0.01 units=km linecode=CCN_25
New line.EL_158826763 phases=3 bus1=PA_D_FI02E4712 bus2=PA_D_RG_I02E4519 length=1.88 units=km linecode=CCN_95
New line.EL_164315155 phases=3 bus1=PA_D_4I02E4429 bus2=BVIRT_6I02E4429 length=0.02 units=km linecode=CCN_95
New line.4I02E4429|D_4I02E442 phases=3 bus1=PA_D_4I02E4429 bus2=BVIRT_4I02E4429 length=0.02 units=km linecode=CCN_95
New line.EL_626330 phases=3 bus1=PA_D_RG_I02E4519 bus2=bar_3 length=0.01 units=km linecode=CCN_95
New line.EL_626330 phases=3 bus1=bar_3 bus2=bar_4 length=0.01 units=km linecode=CCN_95
New line.EL_626330 phases=3 bus1=bar_4 bus2=PA_D_4I02E4429 length=0.91 units=km linecode=CCN_95
New line.EL_193926392 phases=3 bus1=BVIRT_SF90E2165 bus2=PA_E_-2475035 length=0.36 units=km linecode=CCN_95
New line.EL_157875775 phases=3 bus1=PA_E_-2475035 bus2=PA_E_-2475039 length=0.78 units=km linecode=CCN_95
New line.EL_157875739 phases=3 bus1=PA_E_-2475039 bus2=PA_E_-2475041 length=0.45 units=km linecode=CCN_95
New line.EL_157875745 phases=3 bus1=PA_E_-2475041 bus2=PA_E_-2475043 length=0.44 units=km linecode=CCN_95
New line.EL_157875751 phases=3 bus1=PA_E_-2475043 bus2=PA_D_F90E2345 length=0.28 units=km linecode=CCN_95
New line.EL_157875757 phases=3 bus1=PA_D_F90E2345 bus2=PA_E_-2475047 length=0.23 units=km linecode=CCN_95
New line.EL_157875763 phases=3 bus1=PA_E_-2475047 bus2=PA_E_-2475049 length=0.31 units=km linecode=CCN_95
New line.EL_157875769 phases=3 bus1=PA_E_-2475049 bus2=DMUM_SF90E2418 length=0.2 units=km linecode=CCN_95
New line.EL_164315121 phases=3 bus1=DMUM_4I02E4429 bus2=BVIRT_RI02E4429 length=0.03 units=km linecode=CCN_95
New line.FI02E4712|D_T71E0826 phases=3 bus1=BVIRT_FI02E4712 bus2=PA_D_T71E0826 length=0.37 units=km linecode=CCN_25
New line.D_T71E0826|71E1021 phases=3 bus1=PA_D_T71E0826 bus2=CD_71E1021 length=1.81 units=km linecode=CCN_25
New line.EL_193925909 phases=3 bus1=PA_E_-3234290 bus2=PA_E_-3234289 length=0.7 units=km linecode=CCN_95
New line.EL_193926424 phases=3 bus1=PA_D_TF90E2616 bus2=PA_E_-3234290 length=1.04 units=km linecode=CCN_95
New line.EL_193925898 phases=3 bus1=PA_E_-3234289 bus2=PA_E_-3234286 length=0.91 units=km linecode=CCN_95
New line.EL_193926192 phases=3 bus1=PA_D_TF90E2616 bus2=CD_90E2616 length=0.35 units=km linecode=CCN_25
New line.D_TF90E2616|SF90E241 phases=3 bus1=BVIRT_SF90E2418 bus2=PA_D_TF90E2616 length=1.98 units=km linecode=CCN_95
New line.EL_164901442 phases=3 bus1=PA_E_-3234286 bus2=PA_D_TF90E3019 length=0.94 units=km linecode=CCN_95
New line.EL_193926295 phases=3 bus1=PA_D_TF90E3019 bus2=CD_90E3019 length=0.25 units=km linecode=CCN_25
New line.EL_193926292 phases=3 bus1=PA_D_TF90E3019 bus2=PA_E_-3227863 length=0.61 units=km linecode=CCN_95
New line.EL_193925657 phases=3 bus1=PA_E_-3227863 bus2=PA_E_-3218561 length=3.45 units=km linecode=CCN_95
New line.EL_208095837 phases=3 bus1=PA_E_-3218561 bus2=CD_90E3475 length=0.57 units=km linecode=CCN_95
New line.EL_193925651 phases=3 bus1=CD_90E3475 bus2=PA_EL_2847564 length=0.31 units=km linecode=CCN_95
New line.EL_164901454 phases=3 bus1=PA_EL_2847564 bus2=PA_D_381 length=0.44 units=km linecode=CCN_25
New line.EL_164901907 phases=3 bus1=PA_D_381 bus2=PA_D_F90E3582 length=0.45 units=km linecode=CCN_25
New line.EL_164901889 phases=3 bus1=PA_D_F90E3582 bus2=BVIRT_SF90E3628 length=0.44 units=km linecode=CCN_95
New line.EL_164315115 phases=3 bus1=DMUM_RI02E4429 bus2=DMUM_5I02E4429 length=0.02 units=km linecode=CCN_95
New line.D_FF90E3763|SF90E362 phases=3 bus1=DMUM_SF90E3628 bus2=PA_D_FF90E3763 length=1.51 units=km linecode=CCN_95
New line.EL_213142 phases=3 bus1=PA_D_FF90E3763 bus2=PA_D_SJ32E1001 length=0.37 units=km linecode=CCN_95
New line.EL_215262600 phases=3 bus1=PA_D_SJ32E1001 bus2=DMUM_SJ32E1001 length=0.07 units=km linecode=CAA_1/0AWG
New line.EL_213156 phases=3 bus1=PA_D_SJ32E1001 bus2=PA_D_SF90E3942 length=1.32 units=km linecode=CCN_95
New line.EL_57345706 phases=3 bus1=PA_D_SF90E3942 bus2=BVIRT_SF90E3942 length=0.01 units=km linecode=CCN_25
New line.EL_213166 phases=3 bus1=PA_D_SF90E3942 bus2=PA_D_FF90E4120 length=1.73 units=km linecode=CCN_95
New line.D_FF90E4120|SF90E425 phases=3 bus1=PA_D_FF90E4120 bus2=DMUM_SF90E4254 length=1.4 units=km linecode=CCN_95
New line.EL_214380 phases=3 bus1=PA_D_FF90E4120 bus2=DMUM_FF90E4120 length=0.01 units=km linecode=CCN_25
New line.EL_164315127 phases=3 bus1=PA_D_5I02E4429 bus2=DMUM_6I02E4429 length=0.02 units=km linecode=CCN_95
New line.EL_164315143 phases=3 bus1=PA_D_5I02E4429 bus2=BVIRT_SI02E4385 length=0.43 units=km linecode=CCN_95
New line.EL_164315133 phases=3 bus1=BVIRT_5I02E4429 bus2=PA_D_5I02E4429 length=0.02 units=km linecode=CCN_95
New line.BCF90E3763|FF90E3763 phases=3 bus1=DMUM_FF90E3763 bus2=CUMT_BCF90E3763 length=0.02 units=km linecode=CCN_95
New line.SF90E3942|90E3942 phases=3 bus1=DMUM_SF90E3942 bus2=CD_90E3942 length=0.07 units=km linecode=CCN_25
New line.D_FF90E4362|SF90E425 phases=3 bus1=BVIRT_SF90E4254 bus2=PA_D_FF90E4362 length=0.97 units=km linecode=CCN_95
New line.EL_215490 phases=3 bus1=PA_D_FF90E4362 bus2=BVIRT_FF90E4362 length=0.01 units=km linecode=CCN_25
New line.EL_213196 phases=3 bus1=PA_D_FF90E4362 bus2=PA_D_F90E4435 length=0.83 units=km linecode=CCN_95
New line.EL_213204 phases=3 bus1=PA_D_F90E4435 bus2=PA_D_FF90E4431 length=0.44 units=km linecode=CCN_95
New line.EL_198296984 phases=3 bus1=PA_D_FF90E4431 bus2=PA_D_F90E4460 length=0.29 units=km linecode=CCN_95
New line.EL_214456 phases=3 bus1=PA_D_FF90E4431 bus2=DMUM_FF90E4431 length=0.01 units=km linecode=CCN_25
New line.EL_210520022 phases=3 bus1=PA_D_F90E4460 bus2=BVIRT_SF90E4501 length=0.4 units=km linecode=CCN_95
New line.EL_237900516 phases=3 bus1=BVIRT_SJ32E1001 bus2=BVIRT_D_RJ32E1022 length=0.24 units=km linecode=CAA_1/0AWG
New line.FF90E4120|90E4120 phases=3 bus1=BVIRT_FF90E4120 bus2=CD_90E4120 length=0.12 units=km linecode=CCN_25
New line.EL_191329300 phases=3 bus1=CD_02E3554 bus2=BVIRT_SI02E3446 length=0.92 units=km linecode=CCN_95
New line.EL_218865238 phases=3 bus1=PA_D_FI02E3585 bus2=CD_02E3554 length=0.36 units=km linecode=CCN_95
New line.EL_191329256 phases=3 bus1=PA_D_FI02E3585 bus2=DMUM_FI02E3585 length=0.01 units=km linecode=CALX_50
New line.EL_626238 phases=3 bus1=PA_D_FI83E1122 bus2=PA_D_FI02E3585 length=0.22 units=km linecode=CCN_95
New line.EL_627346 phases=3 bus1=PA_D_FI83E1122 bus2=PA_D_I83E1000 length=0.12 units=km linecode=CCN_25
New line.EL_626252 phases=3 bus1=PA_D_I02E3620 bus2=PA_D_FI83E1122 length=0.13 units=km linecode=CCN_95
New line.EL_627352 phases=3 bus1=PA_D_I83E1000 bus2=DMUM_FI83E1122 length=1.31 units=km linecode=CCN_25
New line.EL_626258 phases=3 bus1=PA_D_I02E3647 bus2=PA_D_I02E3620 length=0.33 units=km linecode=CCN_95
New line.EL_626264 phases=3 bus1=PA_D_FI02E3681 bus2=PA_D_I02E3647 length=0.34 units=km linecode=CCN_95
New line.EL_625092 phases=3 bus1=PA_D_FI02E3681 bus2=DMUM_FI02E3681 length=0.01 units=km linecode=CCN_25
New line.EL_626270 phases=3 bus1=PA_D_I02E3821 bus2=PA_D_FI02E3681 length=1.48 units=km linecode=CCN_95
New line.EL_626282 phases=3 bus1=PA_D_FI02E3869 bus2=PA_D_I02E3821 length=0.39 units=km linecode=CCN_95
New line.EL_625098 phases=3 bus1=PA_D_FI02E3869 bus2=DMUM_FI02E3869 length=0.01 units=km linecode=CCN_25
New line.EL_626288 phases=3 bus1=CD_02E3976 bus2=PA_D_FI02E3869 length=0.94 units=km linecode=CCN_95
New line.EL_626298 phases=3 bus1=PA_D_I02E4099 bus2=CD_02E3976 length=1.24 units=km linecode=CCN_95
New line.EL_54641169 phases=3 bus1=CD_02E4181 bus2=PA_D_I02E4099 length=0.82 units=km linecode=CCN_95
New line.EL_626308 phases=3 bus1=PA_D_FI02E4204 bus2=CD_02E4181 length=0.24 units=km linecode=CCN_95
New line.EL_5717362 phases=3 bus1=PA_D_FI02E4204 bus2=DMUM_FI02E4204 length=0.01 units=km linecode=CCN_25
New line.EL_198275733 phases=3 bus1=PA_D_FI02E4262 bus2=PA_D_FI02E4204 length=0.59 units=km linecode=CCN_95
New line.EL_5717353 phases=3 bus1=CD_02E4345 bus2=PA_D_FI02E4262 length=0.82 units=km linecode=CCN_95
New line.EL_198275749 phases=3 bus1=PA_D_FI02E4262 bus2=BVIRT_FI02E4262 length=0.01 units=km linecode=CCN_25
New line.EL_56819060 phases=3 bus1=DMUM_SI02E4385 bus2=CD_02E4345 length=0.41 units=km linecode=CCN_95
New line.EL_213218 phases=3 bus1=DMUM_SF90E4501 bus2=DMUM_SF90E4563 length=0.62 units=km linecode=CCN_95
New line.E_-1052955|E_-105295 phases=3 bus1=PA_E_-1052955 bus2=PA_E_-1052957 length=0.24 units=km linecode=CCN_25
New line.E_-1052953|E_-105295 phases=3 bus1=PA_E_-1052953 bus2=PA_E_-1052955 length=0.05 units=km linecode=CCN_25
New line.E_-1052957|E_-105295 phases=3 bus1=PA_E_-1052957 bus2=PA_E_-1052959 length=0.45 units=km linecode=CCN_25
New line.E_-1052951|E_-105295 phases=3 bus1=PA_E_-1052951 bus2=PA_E_-1052953 length=0.37 units=km linecode=CCN_25
New line.E_-1052959|E_-105296 phases=3 bus1=PA_E_-1052959 bus2=PA_E_-1052961 length=0.38 units=km linecode=CCN_25
New line.12L1200|E_-1052951 phases=3 bus1=CD_12L1200 bus2=PA_E_-1052951 length=0.3 units=km linecode=CCN_25
New line.E_-1052961|E_-105296 phases=3 bus1=PA_E_-1052961 bus2=PA_E_-1052963 length=0.29 units=km linecode=CCN_25
New line.D_3243|12L1200 phases=3 bus1=PA_D_3243 bus2=CD_12L1200 length=2.39 units=km linecode=CCN_25
New line.E_-1052963|E_-105296 phases=3 bus1=PA_E_-1052963 bus2=PA_E_-1052965 length=0.36 units=km linecode=CCN_25
New line.FF90E4362|D_3243 phases=3 bus1=DMUM_FF90E4362 bus2=PA_D_3243 length=0.06 units=km linecode=CCN_25
New line.EL_153929339 phases=3 bus1=PA_E_-1052965 bus2=PA_E_-1052967 length=0.27 units=km linecode=CCN_25
New line.EL_153929393 phases=3 bus1=PA_E_-1052967 bus2=PA_E_-1052969 length=0.05 units=km linecode=CCN_25
New line.EL_153929333 phases=3 bus1=PA_E_-1052969 bus2=PA_E_-1052971 length=0.64 units=km linecode=CCN_25
New line.EL_153929399 phases=3 bus1=PA_E_-1052971 bus2=PA_E_-1052973 length=1.03 units=km linecode=CCN_25
New line.E_-1052973|E_-105297 phases=3 bus1=PA_E_-1052973 bus2=PA_E_-1052975 length=0.66 units=km linecode=CCN_25
New line.E_-1052975|FZ04L1127 phases=3 bus1=PA_E_-1052975 bus2=BVIRT_FZ04L1127 length=0.65 units=km linecode=CCN_25
New line.EL_2043553 phases=3 bus1=BVIRT_FF90E4431 bus2=CD_90E4431 length=0.06 units=km linecode=CCN_25
New line.EL_237900490 phases=3 bus1=PA_D_RJ32E1022 bus2=DMUM_RJ32E1022 length=0.05 units=km linecode=CAA_1/0AWG
New line.EL_214060 phases=3 bus1=PA_D_RJ32E1022 bus2=DMUM_6J32E1022 length=0.02 units=km linecode=CAA_1/0AWG
New line.EL_198275723 phases=3 bus1=DMUM_FI02E4262 bus2=CD_02E4262 length=0.18 units=km linecode=CCN_25
New line.EL_191329282 phases=3 bus1=BVIRT_FI02E3585 bus2=CD_02E3585 length=0.21 units=km linecode=CALX_50
New line.EL_60262055 phases=3 bus1=DMUM_SI02E3446 bus2=PA_D_FI02E3422 length=0.34 units=km linecode=CCN_95
New line.EL_99510260 phases=3 bus1=PA_D_FI02E3422 bus2=BVIRT_FI02E3422 length=0.01 units=km linecode=CCN_25
New line.EL_626212 phases=3 bus1=PA_D_FI02E3422 bus2=PA_D_FI02E3347 length=0.73 units=km linecode=CCN_95
New line.EL_24519106 phases=3 bus1=PA_D_FI02E3347 bus2=BVIRT_FI02E3347 length=0.01 units=km linecode=CCN_25
New line.EL_158256338 phases=3 bus1=PA_D_FI02E3347 bus2=PA_E_-1554060 length=0.34 units=km linecode=CCN_95
New line.EL_158256344 phases=3 bus1=PA_E_-1554060 bus2=CD_02E3281 length=0.32 units=km linecode=CCN_95
New line.EL_24519088 phases=3 bus1=CD_02E3281 bus2=BVIRT_SI02E3152 length=1.26 units=km linecode=CCN_95
New line.EL_627364 phases=3 bus1=BVIRT_FI83E1122 bus2=CD_83E1122 length=0.16 units=km linecode=CCN_25
New line.EL_627370 phases=3 bus1=BVIRT_FI02E3681 bus2=PA_D_O32L1000 length=0.19 units=km linecode=CCN_25
New line.EL_627376 phases=3 bus1=PA_D_O32L1000 bus2=PA_D_O32L1175 length=1.75 units=km linecode=CCN_25
New line.EL_627390 phases=3 bus1=PA_D_O32L1175 bus2=PA_D_TO87L1201 length=0.03 units=km linecode=CCN_25
New line.EL_198479008 phases=3 bus1=PA_D_TO87L1201 bus2=CD_87L1201 length=0.36 units=km linecode=CCN_25
New line.EL_627396 phases=3 bus1=PA_D_TO87L1201 bus2=PA_D_O87L1115 length=1.2 units=km linecode=CCN_25
New line.EL_627406 phases=3 bus1=PA_D_O87L1115 bus2=CD_49L1070 length=1 units=km linecode=CCN_25
New line.EL_627416 phases=3 bus1=CD_49L1070 bus2=PA_EL_1249483 length=0.36 units=km linecode=CCN_25