New Loadshape.CurvadeCarga npts=24 interval=1
~ mult=( 0.75 0.75 0.75 0.75 0.75 0.75 0.65 0.65 0.65 0.65 0.65 0.65 0.85 0.85 0.85 0.85 0.85 0.85 0.95 0.95 0.95 0.95 0.95 0.95)