New LoadShape.geracao npts=96 interval=1 mult=[0 0 0 0 0 0 0 0 0 0 0 0 0 0 0 0 0 0 0 0 0 0 0.01 0.02 0.04 0.05 0.09 0.12 0.17 0.23 0.26 0.39 0.3 0.55 0.19 0.22 0.7 0.72 0.74 0.82 0.89 0.88 0.91 0.93 0.97 0.96 0.96 0.96 0.99 1 0.99 0.98 0.96 0.94 0.91 0.89 0.85 0.81 0.78 0.71 0.66 0.62 0.55 0.48 0.41 0.32 0.22 0.12 0.06 0.01 0 0 0 0 0 0 0 0 0 0 0 0 0 0 0 0 0 0 0 0 0 0 0 0 0 0]

